notebooks/input_files/contingency_results.csv
Line 1,Line 2,Converged,Bus Voltages,Line Loadings
"(0, 1)","(0, 38)",True,"[nan, 1.0470984755759538, 1.0287450950238293, 1.0035872045535104, 1.0054452169434087, 1.0077584034751437, 0.9975829846414523, 0.9969291586461536, 1.0372170797595324, 1.0174445216697308, 1.0128918693256386, 1.0003680845334655, 1.01455127415684, 1.011798681187176, 1.015374107629928, 1.031767470794884, 1.033043954767293, 1.0301032072580107, 1.0498299153394197, 0.9908594739873172, 1.0317893062351406, 1.049859005547696, 1.0448513988589212, 1.0373148647809391, 1.0553033210730107, 1.0507920724357165, 1.036678327965321, 1.049458075807647, 1.04948678195385, 1.0499, 0.982, 0.9841, 0.9972, 1.0123000000000002, 1.0494000000000003, 1.0635999999999997, 1.0275, 1.0265, 1.03]","[nan, nan, 90.65245335150077, 43.299777559512904, 39.00009046258987, 5.542897300662091, 14.143821937129427, 52.78995571759676, 39.36886199509513, 43.463054554211695, 54.11552766758643, 79.39390822867293, 27.459871553220026, 19.418516949885717, 14.695383426274445, 64.05496335518758, 44.44412300324015, 42.23667789283185, 5.817048637981011, 58.69819107914152, 27.858345212098012, 73.4702240181474, 53.53784500176523, 17.32873896139756, 29.174335070939534, 6.342818954302796, 65.78973559616463, 11.993406484748462, 56.445256328125026, 59.45136297033326, 16.64000476678189, 48.418236093353066, 24.09342193666016, 32.24421205330301, 55.7705061271513]"
"(0, 1)","(1, 2)",True,"[1.0276593166370516, 1.063612196751277, 0.9867124401112674, 0.9786952723370625, 0.9874221360818016, 0.9910750573357103, 0.9804416888416675, 0.9797686841865576, 1.0284546172318558, 1.003073312888188, 0.9976385671982976, 0.9842491586909025, 0.9983955356492807, 0.9914013076602092, 0.9948785563647521, 1.0121855920549327, 1.0025280480339716, 0.9940919254094372, 1.0426279989877707, 0.9869291987886153, 1.0180014358722933, 1.0424753586733144, 1.037209046276239, 1.019466306486275, 1.0413559138981028, 1.0195449684501365, 1.0006021635516305, 1.0332819561163755, 1.0383891032834898, 1.0499000000000003, 0.982, 0.9841, 0.9971999999999998, 1.0123, 1.0494000000000003, 1.0636, 1.0275000000000003, 1.0265, 1.03]","[0.0, 10.425824995353286, 0.0, 49.409243519047756, 12.137933499804491, 73.34897250514399, 23.28780459623625, 71.25708937693923, 47.51879415085721, 49.23496050321724, 60.967560039757714, 84.18260458149608, 33.97602015000611, 29.563002942337114, 23.215026138253695, 67.8838156324216, 44.64154201518132, 41.46223230958312, 17.429416549368014, 74.50763716671311, 21.733666222782723, 76.76006549829901, 54.45845272562011, 21.930105662257134, 87.70214026175933, 75.96457591183606, 67.52980680064724, 12.385637034649129, 57.60632841735198, 60.09072659732433, 90.035263200561, 122.54186924282723, 24.631676543207224, 32.34917796807276, 56.13213468541368]"
"(0, 1)","(1, 24)",True,"[1.0276593166370516, 1.0523494171161103, 1.0296398140716783, 1.001552913712822, 1.0021417360685563, 1.0044551949944247, 0.9937407310090567, 0.9929284204716746, 1.033896623806532, 1.0151791549946896, 1.0102632346020932, 0.9978278613643392, 1.0122296921727967, 1.009371353858298, 1.0125608707360478, 1.0290562930560498, 1.0287906155106241, 1.0275164011102365, 1.0488328486028633, 0.9903153809606454, 1.0298808466072207, 1.048837071583146, 1.0437936467504791, 1.0348436975021398, 1.0406568486072603, 1.039086154150389, 1.0267572031770271, 1.043399359260398, 1.04533024689218, 1.0499, 0.982, 0.9841000000000001, 0.9972, 1.0123000000000004, 1.0494000000000003, 1.0636000000000003, 1.0275, 1.0265000000000002, 1.03]","[0.0, 10.425824995353262, 55.79062226242827, 0.0, 34.61653120074861, 36.248486750649015, 15.622892353417289, 60.207372264695955, 44.31343544743464, 49.034793737157905, 59.88332179171388, 81.43423446003213, 33.1871617463629, 27.974575816524876, 22.921943223898538, 65.64452127848702, 43.41095705585653, 41.03099818907894, 9.668424135215663, 65.56187020724707, 19.90117711874139, 73.84504372081997, 53.56354522339698, 17.95714314758884, 55.222463059440166, 36.18599015932716, 66.00946455316041, 12.047470066696507, 56.582104095876126, 59.530363625646245, 50.74363746191041, 81.35441670912887, 23.589337131015856, 31.734691758584717, 55.82622458993883]"
"(0, 1)","(2, 3)",True,"[1.0276593166370516, 1.0546371104579668, 1.044919610323571, 0.9759486944611812, 0.9864241105837951, 0.9903871099136015, 0.9796750281009154, 0.9789679630549639, 1.0281234394094698, 1.003507110417861, 0.9976864003174422, 0.9847358543872017, 0.9993010695235959, 0.9934506442294435, 1.0082054809222358, 1.0305158102891938, 1.0367625085729986, 1.0386370814625332, 1.0493696052626114, 0.9906082869399485, 1.0309082543139916, 1.0493872266922661, 1.0443630839833427, 1.0361740101222572, 1.0592073078234607, 1.053336051066526, 1.03963934321909, 1.0507745877235422, 1.050389954154454, 1.0499000000000005, 0.982, 0.9841000000000001, 0.9971999999999999, 1.0123, 1.0494000000000003, 1.0636, 1.0275000000000003, 1.0265000000000002, 1.03]","[0.0, 10.425824995353288, 82.15654967831938, 39.183300577974364, 0.0, 22.65168793489096, 24.434909412931873, 80.84571314607373, 47.70583600602457, 49.258258358481505, 61.02936193721732, 88.52862864168148, 34.002407808015235, 29.66313831078769, 23.271258090404405, 71.09527623837022, 41.249913094305974, 37.82079048747479, 29.30026204632362, 85.57814654689552, 13.127765465674003, 73.63992020369416, 53.5473674728825, 17.618420950246893, 10.102413818033755, 8.249108480163263, 65.89031158997767, 12.018355916552771, 56.50746274395328, 59.48745137393888, 21.38544012397741, 52.85722755934529, 24.224012209480396, 32.37105363275365, 55.769118099949225]"
"(0, 1)","(2, 17)",True,"[1.0276593166370516, 1.0447831407025585, 1.0237696150311462, 0.9994689267729611, 1.0010364354385524, 1.0035089693139552, 0.9927801490793898, 0.9919655830983888, 1.0334985108126185, 1.0145225442868189, 1.0095182014770216, 0.9970915399996508, 1.011537881482969, 1.008635009636015, 1.013662856807214, 1.0307610790966142, 1.032092123006002, 1.0291086309796662, 1.0494598055793298, 0.9906575086404059, 1.031080903365201, 1.0494796758968234, 1.044458773501837, 1.0363975661370308, 1.0541102892792624, 1.0500738399460077, 1.035887056219913, 1.0490863772389603, 1.0492317833466887, 1.0498999999999996, 0.982, 0.9840999999999998, 0.9972, 1.0123, 1.0494000000000003, 1.0636, 1.0275, 1.0265, 1.03]","[0.0, 10.42582499535318, 93.46824137060874, 44.698901222683304, 36.98415132597458, 0.0, 14.1813548520341, 55.33399173898157, 43.69451332725014, 49.16095332351517, 59.84812906255941, 79.92419174788813, 33.123242186151366, 28.086930764226313, 22.866713064150684, 64.5999964137868, 44.63349732260111, 42.38378124198829, 7.173601179254904, 60.801241174744646, 26.17510605552328, 73.60621393494293, 53.54518485887508, 17.561596799729106, 26.045660463829968, 6.421376343771504, 65.8704860481819, 12.013465613455399, 56.4951416073596, 59.48032781188205, 15.197528185181744, 47.05878388241002, 24.057883763290036, 32.20942610558637, 55.7715910587221]"
"(0, 1)","(3, 4)",True,"[1.0276593166370516, 1.045700556921484, 1.0257686197334053, 0.9976235811103537, 1.0022303318388497, 1.0045354610023138, 0.9938337529709192, 0.9930108710960746, 1.0339307150181698, 1.0144738851860822, 1.0099119169428319, 0.9970369730311778, 1.0110328642832678, 1.0072914349877258, 1.0128104686752972, 1.030050580210271, 1.0310924127539602, 1.027744256256244, 1.049198511447992, 0.9905149220763597, 1.0305807669674976, 1.0492118649413307, 1.0441815759422983, 1.0357499650657807, 1.054356537669668, 1.0496938903984965, 1.0351842653117351, 1.0488897441200513, 1.049096885823617, 1.0499000000000005, 0.982, 0.9841000000000001, 0.9971999999999998, 1.0123, 1.0494, 1.0635999999999999, 1.0275000000000003, 1.0265, 1.03]","[0.0, 10.425824995353262, 91.75546679133821, 43.580283634506834, 42.613445084860324, 7.464927034675949, 0.0, 67.3830015905984, 37.3520318083456, 49.9863811227053, 58.92645927417569, 62.54328939050373, 32.206970247445255, 27.96498444416844, 22.92673035907952, 52.09749516203562, 57.29592778545825, 56.36840881771349, 7.532106536140969, 57.765263472741644, 29.795393703385802, 73.70446016804252, 53.551931310386735, 17.72628399730656, 30.893356294282427, 6.715891270972183, 65.92807359106985, 12.027633724519566, 56.53100946051154, 59.501032864657, 16.311075066081, 48.221562221064005, 24.039322644851655, 32.19120762239853, 55.77228842037357]"
"(0, 1)","(3, 13)",True,"[1.0276593166370516, 1.0436387332397423, 1.0216299134138471, 0.9884952646530312, 0.9954713699389508, 0.9990546102147518, 0.988099825816928, 0.9872358003554543, 1.03154272352222, 1.0154637146001697, 1.008470074049651, 0.9981469595067589, 1.0147138258969024, 1.0171752038819646, 1.0169039732385383, 1.0313656963993916, 1.0306632111437886, 1.0258084614285903, 1.0496821594597454, 0.9907788451931362, 1.0315064984417843, 1.049707570410373, 1.044694655777183, 1.036948658487603, 1.053631351332523, 1.0494340475924349, 1.0349138569070353, 1.0487552682731875, 1.0490046304181888, 1.0499000000000003, 0.982, 0.9841000000000001, 0.9971999999999999, 1.0123, 1.0494, 1.0636, 1.0275, 1.0265, 1.0299999999999998]","[0.0, 10.42582499535318, 95.55289059182411, 46.32866378303079, 57.93402035455981, 19.701021916518332, 43.06279058700556, 0.0, 56.90004965221173, 47.553841948015766, 61.90621676689398, 115.29943941531687, 35.07286045896725, 28.647984319758823, 22.728816212861393, 90.42044007229293, 18.686394229102817, 16.05322994638529, 15.048462869474735, 44.42847342099326, 42.48818068042462, 73.52406727893704, 53.54046358042454, 17.42164177409221, 41.63269139859363, 7.116201466589003, 65.82185756353479, 12.001413219503245, 56.46504216840159, 59.46287532959339, 13.948652137691322, 45.86269788488375, 24.026724331721987, 32.17882148762646, 55.77281451386524]"
"(0, 1)","(4, 5)",True,"[1.0276593166370516, 1.0444040489172404, 1.0230257092874226, 0.9921770676021205, 0.9890729577917317, 1.0035577597266458, 0.9873094620800764, 0.9848172781192621, 1.030542574300458, 1.012511271399309, 1.0083323404764, 0.9948359800289007, 1.0083418961874664, 1.0032736272705651, 1.0105112198035533, 1.0284957510679644, 1.0293076868955382, 1.0255758795099452, 1.0486267003534802, 0.9902028858665307, 1.0294862478877123, 1.0486257703578143, 1.0435749400211503, 1.0343327771890596, 1.0534987860614453, 1.0486982896186514, 1.0338247701759762, 1.0483744892524003, 1.0487434017125346, 1.0499000000000003, 0.982, 0.9841, 0.9972000000000001, 1.0123, 1.0494000000000003, 1.0635999999999997, 1.0275, 1.0265, 1.03]","[0.0, 10.425824995353198, 92.88674956228957, 43.94152469928923, 46.27208017361759, 9.575162108380479, 16.117965328161507, 83.60037262342112, 0.0, 11.256789796512598, 98.96978622708595, 43.53755257440141, 72.16661018213344, 28.94054198775773, 22.878617150095522, 38.616907168370425, 71.65646893656287, 72.10769716788842, 9.60010077067212, 56.63886409833645, 31.97514391522922, 73.92588431112983, 53.571209222037005, 18.08748877289871, 32.78496297384237, 7.091719417883348, 66.05576085567183, 12.058657765010004, 56.611371364491035, 59.54708190512032, 15.942832268025267, 47.975019009582624, 23.991473119365757, 32.14407298643375, 55.77452085650819]"
"(0, 1)","(4, 7)",True,"[1.0276593166370516, 1.045954397202313, 1.0262241105137015, 0.9984167125781248, 0.9983740943548306, 0.9981949545101221, 0.9777093478294262, 0.9736156408831003, 1.025909564941975, 1.0117160684022142, 1.005855428187105, 0.9939441405916799, 1.0090700020038257, 1.0070620721576626, 1.01272404163153, 1.0300827923200904, 1.031250864075196, 1.028028329158837, 1.049210357801465, 0.9905213865362744, 1.030603442044714, 1.0492240069289331, 1.0441941434945718, 1.03577932556703, 1.0544123682998956, 1.0497408218058215, 1.0352697185938942, 1.0489140323419441, 1.0491135484369416, 1.0499, 0.982, 0.9840999999999995, 0.9972000000000002, 1.0123000000000002, 1.0494000000000003, 1.0636000000000003, 1.0275000000000003, 1.0265, 1.03]","[0.0, 10.42582499535324, 91.13389361224789, 43.047862294769814, 40.27076260651216, 5.787149540073995, 17.279597688971958, 50.069847948719215, 8.691205301611554, 0.0, 110.8248307766581, 84.70609575405467, 83.5707231379224, 30.341954814572713, 23.666693914119588, 68.29250643364465, 41.74446154709146, 39.30412565877827, 7.414449273926012, 59.91565044507649, 27.430296754441198, 73.69996597150396, 53.5515974441453, 17.718812388765564, 28.96569447070272, 6.708987111102322, 65.92545239414332, 12.026991261256637, 56.529371705216626, 59.50008956911872, 16.7389341610375, 48.645051703620425, 24.041606357285616, 32.193451092247436, 55.7721976652927]"
"(0, 1)","(5, 6)",True,"[1.0276593166370516, 1.0450198447443344, 1.0242169026231787, 0.9942910049442181, 0.9917020878719379, 0.9981280625493257, 0.9634284768778412, 0.9682975731686568, 1.0237095844663706, 1.010787108774097, 1.0052584905849298, 0.9929022524475105, 1.0076283443388483, 1.0044949535540204, 1.0112151826450313, 1.0290349377058532, 1.0300063741423853, 1.0264831491656734, 1.0488249948010016, 0.9903110951139507, 1.0298658134340835, 1.0488290215770177, 1.0437853146128737, 1.0348242326267802, 1.053774416879396, 1.0490255738637275, 1.0343081208956173, 1.04854387035199, 1.0488596035441609, 1.0499000000000003, 0.982, 0.9840999999999998, 0.9972, 1.0123000000000002, 1.0494000000000003, 1.0636, 1.0275, 1.0265, 1.03]","[0.0, 10.425824995353336, 91.85707318441368, 43.19315709265826, 42.62230526626573, 6.941140402637924, 10.43839233539643, 58.7207956093755, 87.41926472772775, 111.32328139517824, 0.0, 74.68631012778177, 28.65137584496282, 31.031996967267816, 24.092107999864286, 61.07680458182851, 49.26047758849608, 47.46913977212168, 8.226519402188943, 59.37360405419384, 28.528301691764756, 73.84810266497882, 53.56382246867848, 17.962106454495128, 29.988673090444056, 6.9376818555334205, 66.01122292226664, 12.047896229385852, 56.58321302375623, 59.530998143036875, 16.547142244547402, 48.54141718860574, 24.007076743616576, 32.15947093659422, 55.773722292694536]"
"(0, 1)","(5, 10)",True,"[1.0276593166370518, 1.0439828406425447, 1.0223395144457954, 0.9914477022409839, 0.9907445181326553, 0.9926306106525883, 0.9825954487641251, 0.9821347285354428, 1.0294331765816607, 1.0154761544566173, 1.0134482396633415, 0.998160909164389, 1.0098369302807133, 1.0023670248207277, 1.0100253847274674, 1.0281231511269238, 1.0288433898365048, 1.024995548344594, 1.0484896702572057, 0.9901281082610566, 1.0292239488093655, 1.0484853128409988, 1.0434295599611327, 1.0339931612573605, 1.0534292322495238, 1.048559229247535, 1.0335595214934918, 1.0483025202711473, 1.0486940282526853, 1.0499, 0.982, 0.9841000000000001, 0.9972, 1.0123, 1.0494, 1.0636000000000003, 1.0275, 1.0265000000000002, 1.03]","[0.0, 10.425824995353189, 94.06183038117172, 45.02750005134703, 50.741822495584465, 13.537168924308906, 49.33207051769103, 117.68846014672619, 16.03377171146875, 53.51376004971997, 56.46002524636358, 0.0, 29.528282832702974, 29.269346379637174, 23.053432696884354, 9.606046155663734, 102.32764295203845, 105.79349953638308, 12.798557421060123, 52.92495681711462, 36.73088206461794, 73.98025004265911, 53.57674876522679, 18.17420747629356, 36.54863514508598, 7.325283098437605, 66.08669829246267, 12.066096254115164, 56.63100973281138, 59.55826759634426, 15.128458600469315, 47.16638879237337, 23.984880709736167, 32.13755923356764, 55.77487935191389]"
"(0, 1)","(6, 7)",True,"[1.0276593166370518, 1.0460215524655778, 1.0264040136580255, 0.9988101342734966, 0.9985613742116413, 1.0020538857986498, 0.9931524233954648, 0.9864078171189834, 1.031200327606656, 1.01364936227199, 1.0084721536704075, 0.9961123252832473, 1.010672469229985, 1.0078782558559105, 1.0131573183312914, 1.0303217022138205, 1.0314522435158218, 1.0282181974220734, 1.0492982198427476, 0.9905693324042433, 1.0307716172674843, 1.049314060869902, 1.0442873537427717, 1.035997085715905, 1.0545125559012594, 1.049871157094005, 1.035439196440118, 1.048981484131226, 1.0491598228424721, 1.0499, 0.982, 0.9841, 0.9972, 1.0123000000000002, 1.0494, 1.0636000000000003, 1.0275, 1.0265000000000002, 1.03]","[0.0, 10.425824995353155, 91.27371407861209, 43.254518585118674, 40.87795052438798, 6.278787497947433, 11.269433161345795, 56.1567346825757, 67.2209082456858, 82.53015020389971, 27.793872050608005, 76.58526002765343, 0.0, 28.747719692540386, 22.779257410425398, 62.28341492807174, 47.23532054654428, 45.3025200513046, 7.110555453162963, 59.01836563738419, 28.25951762556564, 73.66675192906472, 53.54920416033051, 17.663412336101104, 29.629086329220993, 6.654184886974174, 65.90604211059194, 12.022226613595286, 56.51725915948151, 59.49310693396366, 16.58381298163777, 48.473647939830286, 24.047961793928135, 32.19969169211555, 55.771952436131855]"
"(0, 1)","(7, 8)",True,"[nan, 1.0449707063009412, 1.024080462410707, 0.9939892649618499, 0.9915910020446846, 0.9947308768753974, 0.9789355557848634, 0.9755001847640656, nan, 1.0091037492747137, 1.0029691257969904, 0.9910141530812036, 1.0062426812960923, 1.0038114009605854, 1.0108542956892372, 1.0288381730655523, 1.0298441204841482, 1.0263337619669455, 1.0487526316050166, 0.9902716066012949, 1.0297272998583737, 1.0487548499147987, 1.0437085434282696, 1.0346448865074584, 1.0536938624242735, 1.0489197065279987, 1.0341707581131312, 1.0484890804127773, 1.048822015584138, 1.0498999999999998, 0.982, 0.9841, 0.9971999999999998, 1.0123000000000002, 1.0494000000000003, 1.0635999999999999, 1.0275, 1.0265000000000002, nan]","[nan, nan, 91.73172532575224, 43.01301875478098, 42.09705753297466, 6.520003078394594, 15.350826712665125, 53.39525236281404, 35.92296164905818, 40.020551011469394, 50.68426214658308, 81.84305537109186, 22.758424043696404, nan, nan, 66.36504902755, 44.443457245145844, 42.19366261705387, 8.441990775495107, 60.15218006828687, 27.799117380215616, 73.87636518514012, 53.5664318128947, 18.007847159268067, 29.407604483445187, 6.979996830023929, 66.02744434344085, 12.051823058810774, 56.593453120768324, 59.53685345096215, 16.682958646516145, 48.69058934366697, 24.002015880970546, 32.15447975604299, 55.77397366746156]"
"(0, 1)","(8, 38)",True,"[nan, 1.0469811567257943, 1.028484796316884, 1.003041787512816, 1.0046232524275602, 1.0070742737331213, 0.996076945345301, 0.9949477077946367, 1.0254486602641548, 1.0170015602985827, 1.0123642559430852, 0.9998713972958218, 1.014111114938376, 1.0113699544391872, 1.0151285790247029, 1.0316074713868972, 1.0328677948196618, 1.029894620107379, 1.0497710742776265, 0.9908273650802781, 1.0316766835611588, 1.049798699531659, 1.0447889790502376, 1.0371690297495169, 1.0552117095895819, 1.0506869586021912, 1.0365388403950342, 1.049403677801098, 1.0494494629805307, 1.0499, 0.982, 0.9840999999999999, 0.9971999999999998, 1.0123, 1.0493999999999999, 1.0636, 1.0274999999999999, 1.0265000000000002, nan]","[nan, nan, 90.69742422674852, 43.26940001824961, 39.11876648567982, 5.55974086412386, 14.511764347062128, 52.423912474643906, 35.36752546955819, 38.017228260673654, 48.76687799656742, 80.00935449564622, 21.715279080361146, 11.507132630887837, nan, 64.52485979444604, 44.081509654999785, 41.82749234133703, 5.958009318096132, 58.824109913245856, 27.796726688198998, 73.49159483297836, 53.53883816587539, 17.36572627772245, 29.141161827629798, 6.37832657020362, 65.8025091883175, 11.99659481130977, 56.45311504586211, 59.455939425360505, 16.65240710383023, 48.4433456147396, 24.088184089898913, 32.239092803755945, 55.77064584357778]"
"(0, 1)","(9, 10)",True,"[1.0276593166370516, 1.0446710200726117, 1.0236880462375373, 0.9936826635790059, 0.9913742801492359, 0.9929241938112356, 0.9829787126556622, 0.9825809997965876, 1.0296177415890775, 1.0186657044584166, 0.9915390872107027, 0.9862855531366066, 1.011781724255479, 1.0051336596275084, 1.0115198714782196, 1.0290834741752501, 1.029861862854875, 1.0261626105051198, 1.048842844823933, 0.9903208358517328, 1.0298999808233371, 1.0488473176134305, 1.0438042518801378, 1.0348684724162829, 1.053799974782701, 1.0490573940421573, 1.0342879339848456, 1.0485603383522857, 1.048870901211156, 1.0499, 0.982, 0.9840999999999999, 0.9972000000000001, 1.0123000000000002, 1.0494, 1.0636000000000003, 1.0275, 1.0265000000000002, 1.03]","[0.0, 10.425824995353231, 93.10329260056986, 44.39420267522266, 47.40512386442086, 10.928950313373868, 28.40442875849544, 96.38515604025324, 24.8664166717583, 52.22847948088314, 57.68811759458819, 27.44799774658035, 30.824634587997636, 29.214337977104517, 23.023726688204956, 0.0, 107.98111204149212, 84.70959373613904, 9.985740936302037, 54.76478422865843, 33.74034162090858, 73.84115269413233, 53.563194060478345, 17.950826124953778, 34.15685664508649, 7.0070155366293765, 66.00722714812353, 12.046927652094794, 56.580693375390986, 59.52955629258815, 15.621917691664233, 47.6056971137704, 24.008600393348544, 32.16097305372934, 55.77364803179976]"
"(0, 1)","(9, 12)",True,"[1.0276593166370516, 1.0455007726140813, 1.0251098934396998, 0.9962412915922298, 0.9986991554060383, 1.0014991196125198, 0.9907123607578446, 0.9899155009948023, 1.0326508171937554, 1.016329991942662, 1.0090123440114138, 0.9898775642402621, 0.9993505513944555, 1.0018116151036551, 1.009970088809497, 1.028559482672724, 1.029966629053582, 1.0268200597815709, 1.048650138710247, 0.9902156761996812, 1.029531112695145, 1.0486497947904536, 1.043599806433316, 1.034390867005856, 1.0538433232347488, 1.0489620795989383, 1.034227161873735, 1.0485110099310815, 1.048837060060139, 1.0499000000000003, 0.982, 0.9840999999999999, 0.9972000000000001, 1.0123000000000002, 1.0494000000000003, 1.0636000000000003, 1.0275000000000003, 1.0265000000000002, 1.0299999999999998]","[0.0, 10.425824995353151, 90.61075582637388, 42.14083652540269, 37.96073601005209, 4.771256304286364, 43.474932670696575, 23.525504706307398, 57.05862577459753, 47.419949576894794, 61.78127593142767, 116.24046556620893, 35.046745478516314, 28.32827495505075, 22.753277703595842, 108.52298054636704, 0.0, 14.873664521940194, 10.170987803484955, 64.14878057415562, 23.891739633464574, 73.91663561796872, 53.570297308773384, 18.072661967421556, 26.09509962558616, 7.079598280090178, 66.05048222386759, 12.057385593312443, 56.60802701916412, 59.5451744643969, 17.425973552962905, 49.42699053503465, 24.00403992241026, 32.15647626882704, 55.77387225719897]"
"(0, 1)","(12, 13)",True,"[1.0276593166370516, 1.045672776196136, 1.0253732426429392, 0.9963606988325899, 0.9972419702993561, 0.9998582034373213, 0.9891874617112842, 0.9884750642976471, 1.0320551846202766, 1.0128754368249342, 1.0067810815747895, 0.9952443905341796, 1.0108201336143328, 1.0037208960681339, 1.0108519170145671, 1.0290343186888613, 1.030346368045048, 1.0271627505541423, 1.0488247671995012, 0.9903109709495099, 1.0298653776818592, 1.0488287882455818, 1.0437850731023568, 1.0348236684110939, 1.0538869926410503, 1.0490977749827708, 1.0344664016470764, 1.0485812368205665, 1.0488852383460523, 1.0499000000000003, 0.982, 0.9840999999999999, 0.9972000000000001, 1.0123, 1.0494, 1.0636000000000003, 1.0275, 1.0265000000000002, 1.03]","[0.0, 10.425824995353286, 90.15147329009969, 41.70570434540955, 36.651434477786765, 5.3842542865541505, 56.9317052544588, 14.778216206265412, 63.122392893586856, 46.67026464138272, 62.6696539820192, 132.79672677802213, 35.94482614142347, 28.499541217862106, 22.676999629255455, 102.84752721700147, 9.69757670752459, 0.0, 10.480182226470989, 65.42384895211183, 21.97970007767317, 73.84819135266135, 53.5638305065311, 17.96225033419943, 24.659968451132798, 7.058608932267541, 66.01127388149968, 12.047908583026217, 56.583245159625704, 59.53101653544276, 17.746643105429246, 49.72870848306312, 24.010535633848722, 32.162880577065934, 55.77355464790602]"
"(0, 1)","(13, 14)",True,"[1.0276593166370516, 1.0457497824805506, 1.0257665018576656, 0.9970119842467666, 0.9989334005380341, 1.0014416579059746, 0.990785840637008, 0.9900211271684437, 1.0326944937542417, 1.0116972122387837, 1.0069189023656901, 0.9939229925950769, 1.0079610802755936, 1.0032101012381027, 1.0140892108866368, 1.0306872165250263, 1.0315042003778263, 1.0280054128147467, 1.0494326418350917, 0.9906426855898965, 1.031028910338082, 1.0494518349683455, 1.0444299567543651, 1.0363302423694625, 1.0543530392802818, 1.049834323811451, 1.0354447792862198, 1.048962422000814, 1.0491467455220425, 1.0499000000000003, 0.982, 0.9840999999999999, 0.9971999999999998, 1.0123, 1.0494000000000003, 1.0636, 1.0275000000000003, 1.0265000000000002, 1.03]","[0.0, 10.425824995353238, 91.48923396401432, 43.260469037293255, 41.858827975442715, 6.919866108661549, 13.738505735299869, 52.40017134298537, 43.541375450425164, 49.2743133890424, 59.9188004270768, 79.27952627940269, 33.16042232456805, 28.315770645939427, 22.758982861423416, 64.09549362278513, 45.858398265221055, 43.38496165028748, 0.0, 58.29461554593418, 28.435182997418394, 73.61634134409204, 53.545825910016845, 17.578706352143307, 29.95274331387438, 6.602562370346625, 65.87645049137755, 12.014938256989199, 56.498845368613935, 59.482470408894685, 16.51152155309171, 48.406354769848534, 24.04616374467911, 32.197926554499965, 55.772020718259604]"
"(0, 1)","(14, 15)",True,"[1.0276593166370518, 1.040294060482428, 1.0153606854080184, 0.975182528112767, 0.9830566054415459, 0.9864179993327266, 0.9760893701326407, 0.9755799526376753, 1.0267220927021783, 0.9938683677908501, 0.9899459577028101, 0.9739195877732595, 0.9859595813714098, 0.9712833414891427, 0.93043344421216, 1.041340244508163, 1.0345430740174186, 1.0253443756808445, 1.0533502535251873, 0.9927804174147113, 1.0385265006128828, 1.0534664096082877, 1.0485852699753484, 1.0460401330297617, 1.053528293301248, 1.0513472845229452, 1.0379279164035684, 1.049745404554572, 1.0496838996189453, 1.0499, 0.982, 0.9841, 0.9972, 1.0123, 1.0494000000000003, 1.0636, 1.0275000000000005, 1.0265000000000002, 1.03]","[0.0, 10.425824995353143, 105.10771552907951, 54.60787191501287, 101.41094154130752, 56.06116375584973, 11.383765987061881, 8.207587257084201, 39.424762394492205, 50.58543893120259, 60.04551058958258, 63.65905912141676, 32.98121243021535, 30.09094649622482, 23.517666424864576, 52.81072321100666, 63.1473814491064, 61.15080499589145, 63.53591550727257, 0.0, 79.6854985254727, 72.36627155065463, 53.59803762809998, 15.142308441539468, 72.17090008789141, 11.043748971992647, 65.07031657892398, 11.803164813292847, 56.285353376160316, 59.197226839520745, 7.610244468631253, 38.70223038780824, 24.121297138625415, 32.27141266071099, 55.76987659476838]"
"(0, 1)","(15, 16)",True,"[1.0276593166370518, 1.0475358457371826, 1.0283193408983573, 0.9994461044136872, 1.0004735907880982, 1.0028711473832967, 0.9921885840760459, 0.9914081280953791, 1.0332680110911514, 1.0135867587573137, 1.0086217960670334, 0.9960421183061824, 1.0103978621596184, 1.006876816455153, 1.0097471024404443, 1.0270082506428018, 1.0335848205806182, 1.0303083710005505, 1.0480796441811797, 0.9899043551626406, 1.028439074041191, 1.0480650204502697, 1.04299453822016, 1.0329769552189818, 1.054239741380548, 1.050138049775579, 1.0364032949190056, 1.0491196072330167, 1.049254580331537, 1.0499000000000003, 0.982, 0.9841000000000001, 0.9971999999999999, 1.0123, 1.0494000000000006, 1.0635999999999999, 1.0275000000000003, 1.0265000000000002, 1.03]","[0.0, 10.425824995353212, 84.93987275586669, 36.84738328587592, 29.54949432124834, 23.504706135967474, 20.370057599429423, 78.21125327780284, 46.53398284692805, 48.80046126786027, 60.26014822006947, 87.45250887700345, 33.54202161676143, 28.152273277219575, 22.835305228276212, 69.97564855741092, 39.49738891168138, 36.473769865857086, 28.539953897292246, 84.29947133914582, 0.0, 74.1459164374099, 53.595446112947585, 18.434042750048576, 9.960560685024776, 8.465858923173698, 66.18004837334853, 12.088362751220728, 56.690647946078, 59.59208462635319, 21.53973937965732, 53.31811442128094, 24.061036856865073, 32.212517506294134, 55.771481645008514]"
"(0, 1)","(15, 18)",True,"[1.0276593166370516, 1.0431687376100984, 1.0193963390834917, 0.9886851829845977, 0.9884079976696066, 0.9907115768427596, 0.9805179859206343, 0.9801088252281762, 1.0285952975475858, 1.004708292158307, 0.998851907591839, 0.9860834635810922, 1.0007730070121852, 0.9966463470278594, 0.999633604644601, 1.0160569715234844, 1.0201869005921687, 1.0185712989321178, nan, nan, 1.020728023934033, 1.0439356015168006, 1.0387204364694416, 1.0229950408331272, 1.050262684250471, 1.0432870586985616, 1.0264162247041644, 1.0455738210537624, 1.046822028534582, 1.0499000000000003, 0.982, 0.9840999999999999, nan, nan, 1.0494000000000003, 1.0636, 1.0274999999999999, 1.0265000000000002, 1.03]","[0.0, 10.425824995353247, 86.36542604751433, 35.698866246442485, 32.221190157266086, 26.636063997521976, 58.138114620381096, 40.36124866004278, 63.93329222005034, 46.98302847517025, 63.17442660880016, 44.12643345038245, 36.34133733644445, 29.520580760016003, 23.191374235417207, 39.87169925859357, 74.09919899978571, 74.83960316568006, 43.325636105033446, 31.46689203693822, 9.38914584400571, nan, 54.152227382809826, 21.01056903816709, 5.57376779502294, 11.154456346852923, 67.15807810303347, 12.307776206475808, 57.34541124261688, 59.95174318334547, 22.634764405091737, 55.2837322518936, 23.75159318287797, 31.90333398789264, 55.79690819872736]"
"(0, 1)","(15, 20)",True,"[1.0276593166370516, 1.0447941302734232, 1.0241224850199016, 0.9981589532620533, 0.999949376181315, 1.0024495141312004, 0.9917546057427001, 0.9909642520858969, 1.0330844726672235, 1.0131764567335884, 1.008259877611601, 0.9955819788636568, 1.0098530979751201, 1.006131014673913, 1.0073390693350717, 1.0228609290404238, 1.026030447748886, 1.023983166877583, 1.0465543567876578, 0.9890719832527086, 1.0300712025161718, 1.0466147058437345, 1.0371828911931236, 1.0254111907133454, 1.053306840815269, 1.0472756141644222, 1.031502173284027, 1.047638191413523, 1.0482382728601236, 1.0499000000000003, 0.982, 0.9840999999999998, 0.9972, 1.0123, 1.0494000000000003, 1.0635999999999994, 1.0275000000000003, 1.0265, 1.03]","[0.0, 10.42582499535318, 91.63087352947879, 43.1478805081399, 39.304607830175996, 4.491298236422681, 14.329215966240872, 53.195085019152884, 43.788155763685374, 49.19528280276009, 59.9083081921229, 78.97156036012831, 33.16611851642104, 28.204454580590355, 22.810596388990817, 63.90612408915648, 45.65220003175931, 43.35736853836282, 3.9893446323444395, 57.88329261863163, 28.716422054446117, 74.8011055882154, 0.0, 59.92336100223149, 28.833691662894967, 8.053830795860598, 32.053322683854276, 61.62434297713843, 110.45669115274967, 60.09318556506806, 16.94536552842953, 49.15625419867976, 23.925086282911188, 32.07824338367624, 55.778728586555694]"
"(0, 1)","(15, 23)",True,"[1.0276593166370518, 1.0447381427017102, 1.0240277619945255, 0.9981049689290552, 0.9999439198002944, 1.002450638189019, 0.9917538650804971, 0.9909620452867071, 1.0330835601727704, 1.0131508144080934, 1.008239918803167, 0.9955532216283393, 1.009817394119585, 1.0060624403485372, 1.007170650980823, 1.0226644495176755, 1.0258765607914848, 1.023849721053575, 1.0464820950619635, 0.9890325483533184, 1.028099016385494, 1.0525674177255129, 1.0539763806699516, 1.0794183135526563, 1.0532779481104682, 1.047209829891006, 1.0313969183860723, 1.0476041446031041, 1.048214915400404, 1.0499000000000005, 0.982, 0.9841, 0.9972, 1.0123000000000004, 1.0494000000000003, 1.0636, 1.0275, 1.0265, 1.03]","[0.0, 10.425824995353155, 91.72965564013755, 43.23186628341814, 39.6065391057862, 4.823934568457313, 13.854242102723498, 53.34827369755924, 43.566511795875776, 49.22569862583875, 59.878212606180924, 79.40929326561263, 33.1347195463383, 28.204714343333116, 22.810474210739205, 64.21677537754368, 45.34656749838993, 43.00810908315036, 3.9156471021269934, 58.298583164602505, 29.10035805230555, 74.83365002572754, 60.76728898062549, 0.0, 29.12004273778152, 8.091351780953255, 71.3338621089864, 4.0614611535293195, 51.64450225752583, 58.899065914724126, 16.88911523667306, 49.107778710180334, 23.922073429176308, 32.075242963276146, 55.77895211318399]"
"(0, 1)","(16, 17)",True,"[1.0276593166370513, 1.0412422430008956, 1.0182968859721881, 0.9967784251078272, 0.9992445744638182, 1.001878751816589, 0.9911578920837815, 0.9903626627621789, 1.0328357184781825, 1.0132207505075699, 1.008074770796079, 0.9956316531665192, 1.0101399802609226, 1.006962918039865, 1.0140680438990683, 1.0325089932498093, 1.0362106506053006, 1.0138820470551384, 1.0501026152531254, 0.9910082828021761, 1.0323112522579396, 1.050138490622826, 1.0451406803656436, 1.0379907416079623, 1.0549407436383809, 1.052671340093602, 1.0394771719883713, 1.0504306056295685, 1.0501539710347372, 1.0499000000000003, 0.982, 0.9841, 0.9971999999999998, 1.0123000000000002, 1.0493999999999999, 1.0636, 1.0275, 1.0265000000000002, 1.03]","[0.0, 10.42582499535325, 107.43509665001602, 58.169679575128185, 24.49435876737784, 31.724180221104838, 18.121716618391197, 68.43782675743924, 45.52355001912593, 48.982978298958805, 60.177552950085, 84.03709882177684, 33.422353183772124, 28.27539012408667, 22.777534161218284, 67.59100892313977, 41.95379713551755, 39.30639834917719, 17.99721300213988, 73.93529314690872, 14.734018237928376, 73.37241484494741, 53.534100085529786, 17.157487704729046, 0.0, 13.445479604990487, 65.73085438888702, 11.978633737147836, 56.42610418761913, 59.43029388066805, 6.191053714952089, 36.04791583998149, 24.189184826746757, 32.33736726148111, 55.76911128959071]"
"(0, 1)","(16, 26)",True,"[1.0276593166370518, 1.0454614813641858, 1.0249861692142388, 0.9995216807199924, 1.0009922051811637, 1.0034438744164453, 0.9927253420793863, 0.9919157690301998, 1.0334779135172174, 1.0142966956030666, 1.0093463491104617, 0.9968382693250786, 1.0112155272714882, 1.0080806049103874, 1.0114952130205412, 1.0278889007759673, 1.026816951223028, 1.0248064722336692, 1.0484035205089728, 0.9900810961251162, 1.0290590420702557, 1.0483970073338518, 1.0433381596904179, 1.0337796475913466, 1.0547830432067378, 1.051608706548275, 1.0382369648542493, 1.0498806923830974, 1.0497767117857486, 1.0499, 0.982, 0.9840999999999999, 0.9971999999999998, 1.0123000000000002, 1.0494000000000003, 1.0636, 1.0275, 1.0265000000000002, 1.03]","[0.0, 10.425824995353226, 93.23470103542158, 44.68783190668592, 39.58916884153793, 3.698553122414377, 13.658350918818554, 53.21066224025871, 43.46003309328073, 49.195979049892884, 59.81778431569425, 79.26600286276928, 33.092796659284026, 28.092761073999196, 22.863889450171143, 64.11597845372015, 45.168450309344266, 42.9369732320806, 5.68011909223386, 58.51151186954614, 27.83088492252438, 74.01468624021777, 53.58041334448443, 18.228757465528727, 27.95433793990117, 0.0, 66.10621517613728, 12.070773533249206, 56.64343133145729, 59.565329695879534, 15.025588576747193, 46.708358032633484, 24.134543576985703, 32.284313520822494, 55.769643320616694]"
"(0, 1)","(20, 21)",True,"[1.0276593166370516, 1.0397722228614434, 1.0143116532022078, 0.9893987361938987, 0.993734016418819, 0.9966314901581844, 0.9860365832053218, 0.9853379093840484, 1.030757879310875, 1.0069802108366357, 1.0021426410739975, 0.988632147063509, 1.0024258887742927, 0.9957236838368727, 0.9878940226770617, 0.9998912486994795, 1.0085407504144186, 1.0093776534583527, 1.0381057762806158, 0.9844610219273059, 0.9828787121470208, 1.0463740217955277, 1.0272855140327155, 0.9996906349321497, 1.0487934041781302, 1.0386811918894658, 1.0186871062024123, 1.0431897336007911, 1.0451864334234922, 1.0498999999999996, 0.982, 0.9840999999999999, 0.9971999999999999, 1.0123, 1.0494, 1.0636, 1.0275, 1.0265, 1.0299999999999998]","[0.0, 10.425824995353176, 93.91507121392337, 42.919859538669044, 38.08054850157557, 10.143301996026677, 16.63661197432999, 52.6709371084539, 44.82317172960959, 49.32201078355286, 60.3236061781775, 78.24840961271128, 33.467602126642205, 28.877248359424257, 22.845738851988116, 63.42317180511916, 47.897454715196886, 45.27588903112283, 9.010842567612524, 55.35703025593115, 33.180263430937366, 79.47080519866059, 50.38852337846254, 105.14106836467374, 28.791948485903298, 12.459515009602837, 0.0, 108.02981674801244, 157.75163948493503, 61.15269897204778, 17.92212424430429, 51.30994757329555, 23.574821780032416, 31.719288836547737, 55.82960158472652]"
"(0, 1)","(21, 22)",True,"[1.0276593166370516, 1.046370815880511, 1.0272057035472049, 1.0009158111234535, 1.001910432295727, 1.004286211492952, 0.9935590982884884, 0.9927395104433212, 1.0338185141404859, 1.0151284644258884, 1.010187608260639, 0.9977710178152518, 1.012192438031957, 1.0094066165257702, 1.013455683707131, 1.0300908713930563, 1.0315333186762219, 1.02857663041396, 1.0492133290278332, 0.9905230079543419, 1.032077753699666, 1.0528617859873823, 1.0345940562793017, 1.034638408038528, 1.0547283592344103, 1.0499806751976943, 1.035534648149673, 1.0490381623606886, 1.049198706181537, 1.0499000000000003, 0.982, 0.9841, 0.9972, 1.0122999999999998, 1.0494, 1.0636000000000003, 1.0275, 1.0265, 1.03]","[0.0, 10.425824995353251, 91.00844497485005, 43.242706500390995, 39.75597771214918, 5.584343545925243, 13.608197478386302, 53.42003597777792, 43.42046152860217, 49.16419036218863, 59.7719937892078, 79.2965676714565, 33.06520309255701, 27.996569321903692, 22.911009189275806, 64.12684973847227, 44.95981165061266, 42.778538562572585, 6.1686649192584, 58.892608883187435, 28.025479135053306, 73.69883937940534, 60.2311804268889, 13.426533913392245, 29.253511068229344, 6.678644815463978, 70.51608540813824, 0.0, 50.242470223950455, 60.34557621050447, 16.665613921657524, 48.54156474621386, 24.053317206301458, 32.204947115587125, 55.7717541508462]"
"(0, 1)","(22, 23)",True,"[1.0276593166370516, 1.0445249084456758, 1.0235988164059358, 0.9976964611969368, 0.9996265794852645, 1.0021483613109592, 0.9914583701445145, 0.9906725349189702, 1.032963849480163, 1.012851354431312, 1.0079398220128637, 0.9952173823878889, 1.0094625592053916, 1.0055806923821908, 1.0063038939644586, 1.0216379600315721, 1.0250987592466245, 1.0232044830379188, 1.046104568468451, 0.9888265224376869, 1.0189202019168233, 1.0425598641548153, 1.0406718727611364, 1.0260840276076233, 1.053068194018192, 1.0468194436023333, 1.0308208092593145, 1.0474020982791887, 1.0480763035721807, 1.0499000000000003, 0.982, 0.9840999999999998, 0.9972, 1.0123, 1.0494, 1.0636, 1.0275, 1.0265000000000002, 1.03]","[0.0, 10.425824995353148, 91.75538364535954, 43.14845450003176, 39.287515633054895, 4.733793641796161, 14.36313532816826, 53.18839422260698, 43.80679860120772, 49.20625586250489, 59.92502971967656, 79.00127177025111, 33.176773105002646, 28.238821366291962, 22.794502835084288, 63.92881214313601, 45.71182759098646, 43.39102618869883, 3.615122340061066, 57.80159218342643, 28.935198952576936, 75.0058631394518, 111.37472147195437, 52.6493840129616, 28.829998065356534, 8.287232072311685, 104.26392310262959, 50.34753480596279, 0.0, 59.781384831678075, 16.98258220067254, 49.251571255450145, 23.90429791902423, 32.05751682778943, 55.78033126929856]"
"(0, 1)","(22, 35)",True,"[1.0276593166370513, 1.0453201554703613, 1.0231327848617058, 0.9899745459731825, 0.9875438867242701, 0.9895532540245727, 0.9794958376641747, 0.9791748800730413, 1.0282090207562151, 1.0049800760905474, 0.9986901986973183, 0.9863883691578635, 1.0015501859453175, 0.9990132018671923, 1.0083845406402232, 1.0276703095478268, 1.0285709638088998, 1.0251725392432613, 1.0483231294562996, 0.9900372263844082, 1.0299861952104388, 1.047297596552417, 1.0388677967542534, 1.0339599295227486, 1.0518747927377678, 1.0470558805223842, 1.0323169514725996, 1.0475244675486546, 1.0481602537759813, 1.0499, 0.982, 0.9841000000000001, 0.9972, 1.0123000000000002, 1.0494000000000003, nan, 1.0275, 1.0264999999999997, 1.03]","[0.0, 10.425824995353274, 83.94550378055966, 33.992721035212135, 37.70480890829002, 34.12286299263881, 68.54277602582114, 37.86349086684375, 68.56519792788632, 46.417413657175224, 63.837557934153985, 37.81941772502741, 37.024808901360565, 29.63722583212028, 23.256652785503295, 35.65593076698728, 80.44597405891666, 82.14768274736453, 54.00278412856741, 35.53520350273322, 11.103196119949056, 74.04699907778152, 7.917660505721612, 41.080545119760345, 8.419004516131306, 10.637536446663338, 36.0987820572166, 55.08703794135986, 14.737491964233012, nan, 23.66994644838643, 55.75016306675711, 23.91504241412754, 32.06823641228488, 55.77948522538519]"
"(0, 1)","(24, 25)",True,"[1.0276593166370518, 1.0420950761891201, 1.0234059122492354, 0.9990152194105011, 1.0007303784155057, 1.0032219877823514, 0.9924992136851943, 0.9916886328222172, 1.033383996158941, 1.0141794570969853, 1.0092020263814343, 0.9967067950771028, 1.0111025590574758, 1.0080036193716957, 1.0120964074441328, 1.0286959812881329, 1.0283178834746407, 1.0251693621083469, 1.0487003383032292, 0.990243070143089, 1.0296272026105993, 1.0487012494533359, 1.0436530644247848, 1.03451528217761, 1.0549222483766554, 1.040814879285955, 1.029378892475213, 1.0442942007812552, 1.0459441509226415, 1.0499, 0.982, 0.9840999999999999, 0.9972000000000001, 1.0123000000000002, 1.0494, 1.0636000000000003, 1.0275, 1.0265000000000002, 1.03]","[0.0, 10.425824995353144, 109.1038958241004, 62.578490802100596, 41.76245148961999, 12.163018627295951, 13.311798886778337, 50.45956345035376, 43.29710723877018, 49.22829370662612, 59.807077541663446, 78.06561246803273, 33.075062367818084, 28.11936704880044, 22.851056973460597, 63.269658759608575, 46.057199064856086, 43.937054538006194, 7.238557675498744, 55.677474054521895, 31.381839201469084, 73.89687654199882, 53.56837919496707, 18.04091231261357, 17.802618383924738, 15.291229293873462, 66.0391894606468, 12.054661037866378, 56.600878658734175, 59.54109488456335, 0.0, 33.12651766039979, 23.653536398035953, 31.802138589108175, 55.812897923294734]"
"(0, 1)","(25, 26)",True,"[1.0276593166370516, 1.035854076692338, 1.0125285265172013, 0.9923274163119313, 0.9963096601252301, 0.999163014881286, 0.9884822795146034, 0.9877206327006506, 1.0317432133252658, 1.0102596406325515, 1.0052248202841079, 0.9923106449124546, 1.006509719739402, 1.0018437120626664, 1.0033854543638145, 1.018937620593189, 1.0117052023112127, 1.0106149660640564, 1.0451114123379335, 0.9882845245303319, 1.0227566216373536, 1.0450219963135374, 1.0398448892205032, 1.0256207197412404, 1.0615575335291936, 1.0719657341676074, 0.9965658908452126, 1.06041340947193, 1.0570024023749522, 1.0499000000000003, 0.982, 0.9841, 0.9971999999999998, 1.0123000000000004, 1.0494000000000003, 1.0636000000000003, 1.0275000000000003, 1.0265000000000002, 1.03]","[0.0, 10.425824995353198, 145.24938957094628, 96.67298762436877, 45.77398346604868, 39.56575954604935, 14.141646981629027, 44.77678939455529, 43.57243662854443, 49.37764092891058, 60.03768202523296, 75.26388048163754, 33.21801921577796, 28.589789884115614, 22.69969069020155, 61.332617800527245, 49.00031555897102, 46.907972359232765, 12.34565073807742, 48.595207754502454, 41.15976851964091, 75.47627882862209, 53.94746607761719, 20.32902422882965, 7.893291346903932, 48.66145262548518, 66.89019306167376, 12.249940087194327, 57.16116124852946, 59.85232382918083, 30.629056120255694, 0.0, 25.393562894523747, 33.466395525830215, 55.87545553290251]"
"(0, 1)","(25, 27)",True,"[1.0276593166370516, 1.0438964444838221, 1.0246913160544242, 0.999483688565496, 1.0009715093250413, 1.0034275192780187, 0.992707898726425, 0.9918982272946495, 1.033470660293506, 1.0143252746029392, 1.0093610766773393, 0.9968703184469497, 1.0112632045345655, 1.0081779683559198, 1.0119459703849754, 1.0284876527355526, 1.0279179501303621, 1.0253711990215253, 1.0486237220508616, 0.9902012606008438, 1.0294805469383876, 1.0486227175823812, 1.0435717802561202, 1.034325395753762, 1.051152399267229, 1.0377470046491692, 1.0271636622922147, 1.0346635904988641, 1.0399629062228484, 1.0499, 0.982, 0.9840999999999998, 0.9972, 1.0123000000000004, 1.0493999999999999, 1.0636, 1.0275000000000003, 1.0265, 1.03]","[0.0, 10.425824995353263, 91.03927238955262, 44.123480547502304, 38.94172247353389, 4.8352206241753, 13.962377876834772, 53.550478522149994, 43.59946455356726, 49.177580228003315, 59.83780397950722, 79.2083488854298, 33.11272561912513, 28.094814590766543, 22.862895924969287, 64.07888791114131, 45.20110840991458, 42.983059842406185, 5.948494489270104, 58.774127744688, 27.672758969126203, 73.92706059372203, 53.57132584867469, 18.089372930404753, 29.140169447845533, 3.803362931836073, 66.05643188629031, 12.05881942211448, 56.611796640879305, 59.547324404922776, 18.806058772016684, 47.68604019421572, 0.0, 54.2240455730597, 33.479595065408155]"
"(0, 1)","(25, 28)",True,"[1.0276593166370516, 1.043072228527179, 1.0237890289204696, 0.9989216943051916, 1.0005898745361144, 1.0030752511991128, 0.9923598238424794, 0.9915548847828225, 1.0333286931669947, 1.0139896811518216, 1.009018295313776, 0.9964939741469404, 1.0108723203202148, 1.0076564860051662, 1.0112225587681491, 1.0276890191982795, 1.0265646762884733, 1.024186416839763, 1.0483300103300663, 0.9900409813413403, 1.0289183291606379, 1.0483216571666136, 1.0432601688172833, 1.033597460199986, 1.0499680263554856, 1.033812106551851, 1.024385948519609, 1.030428199229971, 1.0349487653543923, 1.0499000000000003, 0.982, 0.9840999999999999, 0.9971999999999998, 1.0122999999999998, 1.0494, 1.0636, 1.0274999999999999, 1.0264999999999997, 1.03]","[0.0, 10.425824995353237, 90.99076322730917, 44.33165473256293, 38.58686264716637, 4.532023112003001, 14.20658555877537, 53.58042446437922, 43.716479581355394, 49.17721700967409, 59.870578966823764, 79.09506631661756, 33.13842792437208, 28.13505041303632, 22.843533122339917, 64.00358044845325, 45.35875292087305, 43.13127670252922, 5.793189994763196, 58.6429309067364, 27.755934587358926, 74.04422661624122, 53.58365130373143, 18.275322511620757, 29.066380642710733, 5.051312408350528, 66.12290933234578, 12.074765036461315, 56.65407630532443, 59.57137381696407, 19.70030069534587, 47.40585998909423, 54.30141493446274, 0.0, 87.16853569673361]"
"(0, 1)","(27, 28)",True,"[1.0276593166370516, 1.042295988927929, 1.0229117923545743, 0.9983251259189018, 1.0001354244838476, 1.00264567166124, 0.9919384907110212, 0.9911416217390946, 1.0331578135112844, 1.0136083756441752, 1.008622650361638, 0.9960663606759217, 1.0104339242485418, 1.007093817969385, 1.0104778382338584, 1.0268670795153798, 1.0251730890095976, 1.0229887060080065, 1.0480277255345725, 0.9898760227888583, 1.0283396894948518, 1.0480118007364472, 1.0429394534419445, 1.0328482808964627, 1.0486695390019005, 1.0296656030716438, 1.021495039292043, 1.0226314071643436, 1.0345796388547464, 1.0499, 0.982, 0.9840999999999999, 0.9971999999999999, 1.0123, 1.0494000000000003, 1.0636, 1.0275, 1.0265000000000002, 1.03]","[0.0, 10.425824995353107, 90.41150073733343, 44.00848896539783, 37.638447953102535, 4.180922534232853, 15.16772311522144, 53.57014176647431, 44.166778580854114, 49.13458466957324, 59.9521531747297, 78.44052527753834, 33.213344190197844, 28.18358719303874, 22.82043791470286, 63.545105846004255, 45.916283858761005, 43.72819373906191, 5.694132950587262, 58.09900786606108, 28.432327779534578, 74.16721237473244, 53.59804035896294, 18.466980714228047, 28.770522645298836, 6.30187713973346, 66.19195164917568, 12.091183133841746, 56.69829299016277, 59.596403687932145, 21.031146487217512, 46.46515862451446, 34.10813975317925, 87.19169875828, 0.0]"
"(0, 38)","(1, 2)",True,"[1.0605272471189484, 1.0663156601668782, 0.9933734253185679, 0.983784743645024, 0.9920666313937488, 0.9954715112251565, 0.9854355321759035, 0.9849457417774841, 1.0322959289188076, 1.006552497470218, 1.0014851009123455, 0.9881523484962838, 1.0021472951547714, 0.995872515753916, 0.999691597066169, 1.016761207573894, 1.0096006599840122, 1.0012491470271194, 1.044310936024851, 0.987847670777055, 1.0212239755473487, 1.0442012060550305, 1.0389953451019123, 1.0236369449190963, 1.0491257403340304, 1.0297458198193892, 1.0109670083144886, 1.0385639499149284, 1.0420128948932244, 1.0499000000000003, 0.982, 0.9840999999999998, 0.9971999999999999, 1.0123, 1.0494, 1.0635999999999999, 1.0275, 1.0265, 1.03]","[16.83784523092732, 0.0, 0.0, 33.90327306360102, 11.28105683961139, 64.29712271549278, 31.25960802395951, 68.51417381799646, 47.192302973837265, 42.86695634070969, 55.69619478510788, 76.85690402139343, 28.814098147345224, 21.200830685662673, 13.385752300739052, 62.514064516825016, 48.864727989383276, 46.42952079926964, 10.70072878935581, 67.38935139882695, 23.153210811151283, 75.8735061447488, 54.10033705135441, 20.84372921957839, 79.90324278255119, 60.04185279433576, 67.09189697368316, 12.29362906511311, 57.29958360590829, 59.92712229390564, 74.18605522393752, 106.56291464810917, 23.87832791484542, 31.65381353993151, 55.92872247327689]"
"(0, 38)","(1, 24)",True,"[1.0496579716287624, 1.0558328180020875, 1.0324754256733915, 1.0040217331381425, 1.0049005149364552, 1.0070927566750547, 0.9969779136711766, 0.9963696117241543, 1.0369873015379327, 1.016996336294965, 1.012398272042441, 0.9998655396295031, 1.0140617126281428, 1.0112980445700914, 1.0139909792507826, 1.0301169024653698, 1.0301380440666787, 1.029366314933349, 1.0492229022757618, 0.9905282320268807, 1.030627453193733, 1.0492368643602739, 1.0442074515641446, 1.0358104160824695, 1.0409377584504724, 1.0397281664739453, 1.0277359186628852, 1.0437316884471641, 1.045558240793047, 1.0499000000000005, 0.982, 0.9841, 0.9972, 1.0123000000000002, 1.0494000000000003, 1.0636, 1.0274999999999999, 1.0265, 1.03]","[17.012202189738215, 0.0, 42.554563931637105, 0.0, 29.39891408696565, 41.518234911619764, 26.580131220565473, 60.95279561223037, 45.01664286013084, 42.71734938693039, 54.90384878223673, 74.7740454571493, 28.272877797897785, 19.500053378249877, 14.629548810816814, 60.775315808922606, 47.86765748506963, 46.05363462404291, 6.316498827457076, 61.48270140768383, 24.187485515490913, 73.69521108986315, 53.55124677925166, 17.710901070306846, 59.44801163527062, 36.22277778046561, 65.92267779101232, 12.02631095554991, 56.52763862467602, 59.499091161471675, 50.75426890895868, 81.25511643153631, 23.612757268533276, 31.759420093416914, 55.82106929745995]"
"(0, 38)","(2, 3)",True,"[1.0508313929381405, 1.0569642728411222, 1.0476542851282136, 0.9798199167348065, 0.9903352453390534, 0.9941220821460384, 0.9840134401210197, 0.983495670658097, 1.0317004151678117, 1.0063836670905915, 1.000927710838826, 0.9879629562438341, 1.002336287242108, 0.9969728949015291, 1.011247638278698, 1.0326184081186374, 1.0391232164663204, 1.0411452335457492, 1.0501428531347612, 0.9910302399921137, 1.0323882666277642, 1.0501797291405586, 1.0451833643893478, 1.038090470124353, 1.0622125882252333, 1.055849209400529, 1.0422678510430792, 1.0520750830120458, 1.0512821347396124, 1.0499, 0.982, 0.9841, 0.9972000000000001, 1.0123000000000002, 1.0494000000000003, 1.0636000000000003, 1.0275000000000003, 1.0265, 1.03]","[16.993205351661558, 0.0, 69.49057776965158, 45.89734364151793, 0.0, 13.70861553280856, 31.326384772636068, 71.27913675998889, 46.94771215610542, 42.97067920730125, 55.72207060577811, 78.2436591496441, 28.78635468815027, 21.421183863001545, 13.243058996537885, 63.629880890289456, 47.777067676013935, 45.35404217325119, 16.828974308812914, 70.99041200626979, 22.930290283101247, 73.3581549403854, 53.533667030024326, 17.132242499131213, 20.133262546530837, 5.88338252693534, 65.72221062705002, 11.976454463134765, 56.423816036578536, 59.42720464381372, 16.81854289065411, 47.94382443900355, 24.360151548785876, 32.50186782029173, 55.7715056635081]"
"(0, 38)","(2, 17)",True,"[1.0408583722313154, 1.0473498821626723, 1.0270945528495432, 1.0021729188604858, 1.0039310081787367, 1.0062634535303752, 0.9961373854240614, 0.995527579198994, 1.0366415191570277, 1.0164180069623525, 1.0117433611872084, 0.9992170522379857, 1.013451673369021, 1.0106521244204107, 1.0150176348015079, 1.03171042936799, 1.0332408608097403, 1.0302621215804053, 1.0498089379080882, 0.9908480268433721, 1.0317491551646505, 1.049837505881288, 1.0448291456038235, 1.0372628731027491, 1.0568470582687406, 1.0518446589697297, 1.0374894375117132, 1.0500027988804046, 1.0498604810654693, 1.0499000000000005, 0.982, 0.9840999999999999, 0.9971999999999999, 1.0123000000000002, 1.0494000000000003, 1.0636, 1.0275, 1.0265000000000002, 1.03]","[17.15602633783339, 0.0, 79.54070608518582, 49.9962670964946, 28.53680735214835, 0.0, 25.116036525225276, 56.25714802501126, 44.41396033967601, 42.82719654639583, 54.86074158889763, 73.32994075261024, 28.204397361885924, 19.62308902572805, 14.531271255799272, 59.77657437227209, 49.03045621780395, 47.33742797125361, 6.725049858667701, 57.07492081853053, 30.118849342554547, 73.47783210103088, 53.538191537160394, 17.341923861772944, 26.0164995112807, 8.140939506140667, 65.7942867164103, 11.994543123740984, 56.44805490628777, 59.45299328806599, 12.077390634466052, 43.488214155609114, 24.14656603411907, 32.29600877093947, 55.76946748891597]"
"(0, 38)","(3, 4)",True,"[1.0412753007787043, 1.0477517285042741, 1.0277109841863885, 0.9986386211021889, 1.0053709533399025, 1.0074489749955267, 0.9973769449329869, 0.9967643913053553, 1.0371494180409357, 1.015790497006705, 1.011836822647413, 0.9985134006496879, 1.012006691809294, 1.0078567009653452, 1.0135687635340502, 1.0307602715750948, 1.032217612182151, 1.0291637772147944, 1.0494595086068221, 0.9906573465857555, 1.0310803349393787, 1.0494793715200557, 1.044458458456614, 1.0363968301030022, 1.05662410309867, 1.0512505887178356, 1.0366487622435074, 1.0496953635842006, 1.049649569760452, 1.0499, 0.982, 0.9840999999999998, 0.9971999999999999, 1.0122999999999998, 1.0494000000000003, 1.0636000000000003, 1.0275000000000003, 1.0265000000000002, 1.03]","[17.149157032172546, 0.0, 77.608675266805, 48.1084038651986, 35.67637354105584, 10.180962171049007, 0.0, 78.45258268642237, 33.101093777402966, 44.335161731149746, 53.258248599080375, 42.31584139904612, 26.593944986474842, 19.442507948058115, 14.675954094175447, 37.61813607727533, 71.860651447216, 72.47487669444388, 11.303662427395142, 52.35181078717977, 36.36773903552833, 73.60632454571089, 53.54519178954552, 17.56178384098086, 33.79078109873141, 7.536847620981926, 65.87055122627639, 12.01348171319794, 56.49518206647737, 59.48035122370341, 13.531675303045128, 45.12129536486441, 24.116417157169874, 32.266655978257184, 55.76997311314005]"
"(0, 38)","(3, 13)",True,"[1.039668184171887, 1.046202792077457, 1.0246760350198822, 0.9916180624398212, 0.9984884129429291, 1.0019106748680633, 0.9915741694424871, 0.9909151925137305, 1.0347474049479175, 1.0172832640682343, 1.0106944946653396, 1.0001872693745177, 1.0164468210887174, 1.018675776590624, 1.0181543049474875, 1.032456637550822, 1.0323250040794347, 1.0279834911663748, 1.0500833611377216, 0.9909977761055452, 1.0322744003028133, 1.0501187576641113, 1.0451202557236905, 1.0379430208829057, 1.0561913631710327, 1.0512725713253332, 1.0367669828251367, 1.0497067397959337, 1.0496573742409419, 1.0499000000000003, 0.982, 0.9840999999999999, 0.9971999999999999, 1.0123, 1.0494, 1.0636000000000003, 1.0275000000000003, 1.0265, 1.03]","[17.175666158516073, 0.0, 80.85409304435802, 50.56833821976433, 47.63355581163962, 21.474871903104614, 53.7453956971492, 0.0, 57.510766406713174, 41.18887458106126, 56.87004912416255, 108.44642308562736, 30.1112544911662, 20.3038888804324, 14.010691201648584, 85.39493533784842, 23.34802787377452, 20.84555850090845, 20.069906605970065, 40.2714051289948, 47.61956942907161, 73.37925399201612, 53.53431818589329, 17.169569862788357, 43.31925135831211, 8.663163038652037, 65.73499453345012, 11.979676579530306, 56.42720390778296, 59.43177388443194, 11.555516236617743, 42.99050365744803, 24.117525626426758, 32.26773663182752, 55.76995068356423]"
"(0, 38)","(4, 5)",True,"[1.0404105837327773, 1.0469183010030685, 1.025929743075941, 0.9950084814231757, 0.9923498880507912, 1.0060156423415298, 0.9906642223108605, 0.9884382566295401, 1.0337302110435487, 1.0141827897258835, 1.0102933343338911, 0.996710532383501, 1.0100486731044844, 1.0052376708010122, 1.0120509993594267, 1.0297388737276656, 1.0310521273628497, 1.027754751252562, 1.049083877373415, 0.9904523667582167, 1.0303613461000736, 1.0490943698212636, 1.0440599627745712, 1.0354658526186402, 1.0560383660508559, 1.0505792462782841, 1.0357452079018898, 1.0493479349153436, 1.0494112213656521, 1.0499, 0.982, 0.9841, 0.9971999999999999, 1.0123000000000002, 1.0494000000000003, 1.0635999999999999, 1.0275000000000003, 1.0265000000000002, 1.03]","[17.163410220717637, 0.0, 78.24756207940605, 48.173206645942884, 37.58018192436236, 11.023113054073745, 6.668623760202104, 84.06563946078846, 0.0, 5.618541298082162, 94.4542751713913, 36.157551828703795, 67.75905493374147, 20.674002960501277, 13.744325703916472, 33.34512420912157, 76.76241371897544, 77.80431852782941, 12.496210177262592, 52.268884652118, 37.09955835655871, 73.74814492884158, 53.55529957848554, 17.798609158250407, 34.467085258328794, 7.835657855410402, 65.95348893439406, 12.033851215513348, 56.5469145786389, 59.51018335870584, 13.42332544332789, 45.08890857280008, 24.082829838355863, 32.233857060672136, 55.77079579371919]"
"(0, 38)","(4, 7)",True,"[1.0421645181051444, 1.0486088051005105, 1.0293969457915098, 1.0017886188179803, 1.0023375157209518, 1.0023339567907479, 0.9836550928565793, 0.9799481381969025, 1.0302434968225944, 1.0144656346660603, 1.0091199664316588, 0.9970277207784659, 1.0118090474339514, 1.0098128674644513, 1.014719356199159, 1.0316042420369766, 1.0332610349931337, 1.0304777272066756, 1.0497698866602472, 0.9908267170116526, 1.0316744104350544, 1.0497974823415712, 1.0447877191962986, 1.0371660862865641, 1.057062949095612, 1.0517755062896463, 1.0373996384238098, 1.0499670121022326, 1.049835930101615, 1.0499000000000003, 0.982, 0.9840999999999998, 0.9971999999999999, 1.0123, 1.0494000000000003, 1.0636, 1.0275, 1.0265, 1.03]","[17.13452467098941, 0.0, 76.36220122794451, 47.309990748880956, 32.065963631318546, 6.686462118227719, 27.532801739744478, 50.50344213140945, 13.794500843846896, 0.0, 98.98053992512672, 77.01861169404339, 71.84380921771641, 21.96403631884127, 13.268615236394826, 62.63533656823452, 46.7622861647848, 44.975675165135335, 8.164053551521315, 55.23849232188892, 32.53288078029908, 73.49202714090988, 53.538858884976825, 17.366472943234786, 30.63944012686334, 7.0147859266746675, 65.8027672527771, 11.996659165828563, 56.45327394123269, 59.456031904777994, 14.159383724669539, 45.725182234338135, 24.143035966104364, 32.292576101402275, 55.76951560840454]"
"(0, 38)","(5, 6)",True,"[1.041270923401351, 1.047747509436208, 1.0275626889959208, 0.9980190091179487, 0.9962375510386637, 1.0021200164853563, 0.9697837467590704, 0.9746178819589663, 1.02805438257647, 1.0135143371400583, 1.008449271662899, 0.9959609005454253, 1.0103973350210051, 1.0074126780364754, 1.0133055470271692, 1.0306265577625324, 1.0321084192698886, 1.029055649546944, 1.0494103338689735, 0.9906305122585047, 1.0309862115822892, 1.0494289708627076, 1.0444062912698595, 1.0362749535148048, 1.056473775876931, 1.0511119523343069, 1.0365078542599018, 1.0496236177927483, 1.049600349621677, 1.0499000000000005, 0.982, 0.9840999999999999, 0.9971999999999995, 1.0123, 1.0494000000000003, 1.0636, 1.0275000000000003, 1.0265000000000002, 1.0299999999999998]","[17.14922912841903, 0.0, 77.06333133219961, 47.429223296301345, 34.216179118307686, 7.802747884986107, 20.88478437854562, 58.23424276756391, 84.09110104760097, 99.43237351189255, 0.0, 68.054927120862, 28.4636151956717, 22.789052536500858, 13.822433966121103, 56.18987014849821, 53.504593110217016, 52.2561780018139, 9.422271626258624, 54.80817119128153, 33.524222021188805, 73.62467332963041, 53.54636284595421, 17.592759306631635, 31.545500367961495, 7.320514813021241, 65.88135260480021, 12.016147691844568, 56.5018913961807, 59.48423170795517, 13.998318580290992, 45.6373936647525, 24.109439111907317, 32.25985044064218, 55.77012116347394]"
...